 Abaqus/Standard 6.14-4                  DATE 04-Nov-2016 TIME 12:27:47
 SUMMARY OF JOB INFORMATION:
 MONITOR NODE:     687  INSTANCE: PART-1-1    DOF:  3
 STEP  INC ATT SEVERE EQUIL TOTAL  TOTAL      STEP       INC OF       DOF    IF
               DISCON ITERS ITERS  TIME/    TIME/LPF    TIME/LPF    MONITOR RIKS
               ITERS               FREQ
   1     1   1     0     3     3  0.0500     0.0500     0.05000    -0.207    
   1     2   1     0     2     2  0.100      0.100      0.05000    -0.415    
   1     3   1     0     3     3  0.175      0.175      0.07500    -0.727    
   1     4   1     0     3     3  0.288      0.288      0.1125     -1.20     
   1     5   1     0     3     3  0.456      0.456      0.1688     -1.91     
   1     6   1     0     3     3  0.709      0.709      0.2531     -2.98     
   1     7   1     0     3     3  1.00       1.00       0.2906     -4.23     
   2     1   1     0     2     2  1.05       0.0500     0.05000    -4.01     
   2     2   1     0     2     2  1.10       0.100      0.05000    -3.80     
   2     3   1     0     2     2  1.18       0.175      0.07500    -3.48     
   2     4   1     0     3     3  1.29       0.288      0.1125     -3.00     
   2     5   1     0     3     3  1.46       0.456      0.1688     -2.28     
   2     6   1     0     3     3  1.71       0.709      0.2531     -1.21     
   2     7   1     0     3     3  2.00       1.00       0.2906     -0.000136 
                          
 THE ANALYSIS HAS COMPLETED SUCCESSFULLY
