1

   Abaqus 6.14-4                                  Date 04-Nov-2016   Time 12:27:30
   For use by soco ENGINEERS AG under license from Dassault Systemes or its subsidiary.

 J29_BBG_TV: Status - BBG, P04DBO0_A-_01_A, Berechnungsstand 21.04.2016          
  LF_ABSENKUNG                                                                   
 STEP    1     INCREMENT     1     STEP TIME    0.00    


                        S T E P       1     S T A T I C   A N A L Y S I S


           LF_ABSENKUNG                                                                   

     AUTOMATIC TIME CONTROL WITH -
          A SUGGESTED INITIAL TIME INCREMENT OF                5.000E-02
          AND A TOTAL TIME PERIOD OF                            1.00    
          THE MINIMUM TIME INCREMENT ALLOWED IS                1.000E-07
          THE MAXIMUM TIME INCREMENT ALLOWED IS                 1.00    

     LINEAR EQUATION SOLVER TYPE         DIRECT SPARSE

 CONVERGENCE TOLERANCE PARAMETERS FOR FORCE    
     CRITERION FOR RESIDUAL FORCE     FOR A NONLINEAR PROBLEM          5.000E-03
     CRITERION FOR DISP.    CORRECTION IN A NONLINEAR PROBLEM          1.000E-02
     INITIAL VALUE OF TIME AVERAGE FORCE                               1.000E-02
     AVERAGE FORCE     IS TIME AVERAGE FORCE    
     ALTERNATE CRIT. FOR RESIDUAL FORCE     FOR A NONLINEAR PROBLEM    2.000E-02
     CRITERION FOR ZERO FORCE     RELATIVE TO TIME AVRG. FORCE         1.000E-05
     CRITERION FOR RESIDUAL FORCE     WHEN THERE IS ZERO FLUX          1.000E-05
     CRITERION FOR DISP.    CORRECTION WHEN THERE IS ZERO FLUX         1.000E-03
     CRITERION FOR RESIDUAL FORCE     FOR A LINEAR INCREMENT           1.000E-08
     FIELD CONVERSION RATIO                                             1.00    
     CRITERION FOR ZERO FORCE     REL. TO TIME AVRG. MAX. FORCE        1.000E-05
     CRITERION FOR ZERO DISP.    RELATIVE TO CHARACTERISTIC LENGTH     1.000E-08

 CONVERGENCE TOLERANCE PARAMETERS FOR MOMENT   
     CRITERION FOR RESIDUAL MOMENT    FOR A NONLINEAR PROBLEM          5.000E-03
     CRITERION FOR ROTATION CORRECTION IN A NONLINEAR PROBLEM          1.000E-02
     INITIAL VALUE OF TIME AVERAGE MOMENT                              1.000E-02
     AVERAGE MOMENT    IS TIME AVERAGE MOMENT   
     ALTERNATE CRIT. FOR RESIDUAL MOMENT    FOR A NONLINEAR PROBLEM    2.000E-02
     CRITERION FOR ZERO MOMENT    RELATIVE TO TIME AVRG. MOMENT        1.000E-05
     CRITERION FOR RESIDUAL MOMENT    WHEN THERE IS ZERO FLUX          1.000E-05
     CRITERION FOR ROTATION CORRECTION WHEN THERE IS ZERO FLUX         1.000E-03
     CRITERION FOR RESIDUAL MOMENT    FOR A LINEAR INCREMENT           1.000E-08
     FIELD CONVERSION RATIO                                             1.00    
     CRITERION FOR ZERO MOMENT    REL. TO TIME AVRG. MAX. MOMENT       1.000E-05

     VOLUMETRIC STRAIN COMPATIBILITY TOLERANCE FOR HYBRID SOLIDS       1.000E-05
     AXIAL STRAIN COMPATIBILITY TOLERANCE FOR HYBRID BEAMS             1.000E-05
     TRANS. SHEAR STRAIN COMPATIBILITY TOLERANCE FOR HYBRID BEAMS      1.000E-05
     SOFT CONTACT CONSTRAINT COMPATIBILITY TOLERANCE FOR P>P0          5.000E-03
     SOFT CONTACT CONSTRAINT COMPATIBILITY TOLERANCE FOR P=0.0         0.100    
     CONTACT FORCE ERROR TOLERANCE FOR CONVERT SDI=YES                 1.00    
     DISPLACEMENT COMPATIBILITY TOLERANCE FOR DCOUP ELEMENTS           1.000E-05
     ROTATION COMPATIBILITY TOLERANCE FOR DCOUP ELEMENTS               1.000E-05

 EQUILIBRIUM WILL BE CHECKED FOR SEVERE DISCONTINUITY ITERATIONS

 TIME INCREMENTATION CONTROL PARAMETERS:
 *** FIRST EQUILIBRIUM ITERATION FOR CONSECUTIVE DIVERGENCE CHECK             20
 *** EQUILIBRIUM ITERATION AT WHICH LOG. CONVERGENCE RATE CHECK BEGINS        15
     EQUILIBRIUM ITERATION AFTER WHICH ALTERNATE RESIDUAL IS USED              9
     MAXIMUM EQUILIBRIUM ITERATIONS ALLOWED                                   16
     EQUILIBRIUM ITERATION COUNT FOR CUT-BACK IN NEXT INCREMENT               10
     MAXIMUM EQUILIB. ITERS IN TWO INCREMENTS FOR TIME INCREMENT INCREASE      4
     MAXIMUM ITERATIONS FOR SEVERE DISCONTINUITIES                            50
 *** MAXIMUM CUT-BACKS ALLOWED IN AN INCREMENT                                 9
     MAXIMUM DISCON. ITERS IN TWO INCREMENTS FOR TIME INCREMENT INCREASE      50
     MAXIMUM CONTACT AUGMENTATIONS FOR *SURFACE BEHAVIOR,AUGMENTED LAGRANGE   50
     CUT-BACK FACTOR AFTER DIVERGENCE                                 0.2500    
     CUT-BACK FACTOR FOR TOO SLOW CONVERGENCE                         0.5000    
     CUT-BACK FACTOR AFTER TOO MANY EQUILIBRIUM ITERATIONS            0.7500    
     CUT-BACK FACTOR AFTER TOO MANY SEVERE DISCONTINUITY ITERATIONS   0.2500    
     CUT-BACK FACTOR AFTER PROBLEMS IN ELEMENT ASSEMBLY               0.2500    
     INCREASE FACTOR AFTER TWO INCREMENTS THAT CONVERGE QUICKLY        1.500    
     MAX. TIME INCREMENT INCREASE FACTOR ALLOWED                       1.500    
     MAX. TIME INCREMENT INCREASE FACTOR ALLOWED (DYNAMICS)            1.250    
     MAX. TIME INCREMENT INCREASE FACTOR ALLOWED (DIFFUSION)           2.000    
     MINIMUM TIME INCREMENT RATIO FOR EXTRAPOLATION TO OCCUR          0.1000    
     MAX. RATIO OF TIME INCREMENT TO STABILITY LIMIT                   1.000    
     FRACTION OF STABILITY LIMIT FOR NEW TIME INCREMENT               0.9500    
     TIME INCREMENT INCREASE FACTOR BEFORE A TIME POINT                1.000    

 *** INDICATES USE OF NON-DEFAULT TIME INCREMENTATION CONTROL PARAMETER
     SELECTED WITH *CONTROLS

 CONTACT CONTROLS APPLIED TO ALL CONTACT PAIRS:
 *** CONTACT DAMPING FOR STABILIZATION IS INCLUDED
     DAMPING COEFFICIENT IS CHOSEN AUTOMATICALLY
 *** DAMPING COEFFICIENT IS RAMPED DOWN TO                             1.000E-02
     DAMPING RANGE IS CHOSEN AUTOMATICALLY
     TANGENT DAMPING FRACTION IS EQUAL TO                               1.00    

 *** INDICATES USE OF NON-DEFAULT CONTROLS APPLIED TO ALL CONTACT PAIRS 
     UNLESS SPECIFICALLY OVERRIDDEN BY A LOCAL SURFACE BEHAVIOR OR 
     A CONTACT CONTROLS FOR A SPECIFIC CONTACT PAIR


          PRINT OF INCREMENT NUMBER, TIME, ETC., EVERY    1  INCREMENTS

     THE MAXIMUM NUMBER OF INCREMENTS IN THIS STEP IS                    1000

          LARGE DISPLACEMENT THEORY WILL BE USED

     LINEAR EXTRAPOLATION WILL BE USED

     CHARACTERISTIC ELEMENT LENGTH      5.04    

     DETAILED OUTPUT OF CONTACT CHANGES DURING ITERATION REQUESTED

     DETAILS REGARDING ACTUAL SOLUTION WAVEFRONT REQUESTED

     DETAILED OUTPUT OF DIAGNOSTICS TO DATABASE REQUESTED

     DETAILED OUTPUT OF PLASTICITY FAILURES DURING ITERATION REQUESTED

     DETAILED OUTPUT OF MODEL CHANGE REQUESTED

     PRINT OF INCREMENT NUMBER, TIME, ETC., TO THE MESSAGE FILE EVERY     1  INCREMENTS

     THE STATUS FILE WILL MONITOR NODE         687 DOF  3
     THE MESSAGE FILE WILL MONITOR NODE        687 DOF  3 EVERY     1 INCREMENTS

     ELEMENT OPERATIONS WILL BE CARRIED OUT IN PARALLEL USING  10 PROCESSORS

     PARALLEL CONTACT TRACKING ENABLED


     COLLECTING MODEL CONSTRAINT INFORMATION FOR OVERCONSTRAINT CHECKS

     COLLECTING STEP CONSTRAINT INFORMATION FOR OVERCONSTRAINT CHECKS
  
     ASYNCHRONOUS OUTPUT DATABASE FRAME FLUSH STARTED
  


  INCREMENT     1 STARTS. ATTEMPT NUMBER  1, TIME INCREMENT  5.000E-02
 
     INITIAL ELEMENT LOAD BALANCE
        COMPUTE NODE   1   PROCESS    NUMBER OF ELEMENTS
                              1            4096
                              2            8960
                              3            9216
                              4            8858
                              5            8192
                              6            8704
                              7            10240
                              8            8704
                              9            8704
                             10            9472

  NUMBER OF EQUATIONS =   505425     NUMBER OF FLOATING PT. OPERATIONS =  1.58E+11

  USING THE DIRECT SOLVER WITH  10 PROCESSORS

     CHECK POINT   START OF SOLVER    

     CHECK POINT  END OF SOLVER       

       ELAPSED USER TIME (SEC)      =   17.280    
       ELAPSED SYSTEM TIME (SEC)    =  0.70000    
       ELAPSED TOTAL CPU TIME (SEC) =   17.980    
       ELAPSED WALLCLOCK TIME (SEC) =          1

               CONVERGENCE CHECKS FOR EQUILIBRIUM ITERATION     1


 AVERAGE FORCE                      0.550       TIME AVG. FORCE       0.550    
 LARGEST RESIDUAL FORCE             -5.57       AT NODE     278916   DOF  3
 LARGEST INCREMENT OF DISP.         0.550       AT NODE     357082   DOF  2
 LARGEST CORRECTION TO DISP.        0.550       AT NODE     357082   DOF  2
          FORCE     EQUILIBRIUM NOT ACHIEVED WITHIN TOLERANCE.

 AVERAGE MOMENT                     0.189       TIME AVG. MOMENT      0.189    
 LARGEST RESIDUAL MOMENT            -88.9       AT NODE        687   DOF  5
 LARGEST INCREMENT OF ROTATION     -2.202E-03   AT NODE     323779   DOF  6
 LARGEST CORRECTION TO ROTATION    -2.202E-03   AT NODE     323779   DOF  6
          MOMENT    EQUILIBRIUM NOT ACHIEVED WITHIN TOLERANCE.

  NUMBER OF EQUATIONS =   505425     NUMBER OF FLOATING PT. OPERATIONS =  1.58E+11

  USING THE DIRECT SOLVER WITH  10 PROCESSORS

     CHECK POINT   START OF SOLVER    

     CHECK POINT  END OF SOLVER       

       ELAPSED USER TIME (SEC)      =   17.330    
       ELAPSED SYSTEM TIME (SEC)    =  0.24000    
       ELAPSED TOTAL CPU TIME (SEC) =   17.570    
       ELAPSED WALLCLOCK TIME (SEC) =          2

               CONVERGENCE CHECKS FOR EQUILIBRIUM ITERATION     2


 AVERAGE FORCE                      0.541       TIME AVG. FORCE       0.541    
 LARGEST RESIDUAL FORCE            -1.915E-05   AT NODE     277602   DOF  3
 LARGEST INCREMENT OF DISP.         0.551       AT NODE     357082   DOF  2
 LARGEST CORRECTION TO DISP.        1.316E-03   AT NODE  100102206   DOF  2
          THE FORCE     EQUILIBRIUM EQUATIONS HAVE CONVERGED

 AVERAGE MOMENT                     0.189       TIME AVG. MOMENT      0.189    
 LARGEST RESIDUAL MOMENT           -1.076E-03   AT NODE        687   DOF  4
 LARGEST INCREMENT OF ROTATION     -2.201E-03   AT NODE     323779   DOF  6
 LARGEST CORRECTION TO ROTATION     5.570E-06   AT NODE     409805   DOF  6
          MOMENT    EQUILIBRIUM NOT ACHIEVED WITHIN TOLERANCE.

  NUMBER OF EQUATIONS =   505425     NUMBER OF FLOATING PT. OPERATIONS =  1.58E+11

  USING THE DIRECT SOLVER WITH  10 PROCESSORS

     CHECK POINT   START OF SOLVER    

     CHECK POINT  END OF SOLVER       

       ELAPSED USER TIME (SEC)      =   17.200    
       ELAPSED SYSTEM TIME (SEC)    =  0.23000    
       ELAPSED TOTAL CPU TIME (SEC) =   17.430    
       ELAPSED WALLCLOCK TIME (SEC) =          1

               CONVERGENCE CHECKS FOR EQUILIBRIUM ITERATION     3


 AVERAGE FORCE                      0.541       TIME AVG. FORCE       0.541    
 LARGEST RESIDUAL FORCE             7.561E-07   AT NODE        687   DOF  3
 LARGEST INCREMENT OF DISP.         0.551       AT NODE     357082   DOF  2
 LARGEST CORRECTION TO DISP.        1.080E-05   AT NODE     287002   DOF  2
          THE FORCE     EQUILIBRIUM EQUATIONS HAVE CONVERGED

 AVERAGE MOMENT                     0.189       TIME AVG. MOMENT      0.189    
 LARGEST RESIDUAL MOMENT            4.981E-06   AT NODE        687   DOF  5
 LARGEST INCREMENT OF ROTATION     -2.201E-03   AT NODE     323779   DOF  6
 LARGEST CORRECTION TO ROTATION     9.295E-08   AT NODE      50277   DOF  4
          THE MOMENT    EQUILIBRIUM EQUATIONS HAVE CONVERGED

 ITERATION SUMMARY FOR THE INCREMENT:   3 TOTAL ITERATIONS, OF WHICH
   0 ARE SEVERE DISCONTINUITY ITERATIONS AND  3 ARE EQUILIBRIUM ITERATIONS.

 CURRENT VALUE OF MONITOR NODE        687 D.O.F.  3 IS  -0.207    

 TIME INCREMENT COMPLETED  5.000E-02,  FRACTION OF STEP COMPLETED  5.000E-02
 STEP TIME COMPLETED       5.000E-02,  TOTAL TIME COMPLETED        5.000E-02
  
     ASYNCHRONOUS OUTPUT DATABASE FRAME FLUSH STARTED
  


  INCREMENT     2 STARTS. ATTEMPT NUMBER  1, TIME INCREMENT  5.000E-02

  NUMBER OF EQUATIONS =   505425     NUMBER OF FLOATING PT. OPERATIONS =  1.58E+11

  USING THE DIRECT SOLVER WITH  10 PROCESSORS

     CHECK POINT   START OF SOLVER    

     CHECK POINT  END OF SOLVER       

       ELAPSED USER TIME (SEC)      =   16.860    
       ELAPSED SYSTEM TIME (SEC)    =  0.25000    
       ELAPSED TOTAL CPU TIME (SEC) =   17.110    
       ELAPSED WALLCLOCK TIME (SEC) =          2

               CONVERGENCE CHECKS FOR EQUILIBRIUM ITERATION     1


 AVERAGE FORCE                       1.09       TIME AVG. FORCE       0.817    
 LARGEST RESIDUAL FORCE              11.2       AT NODE     277602   DOF  3
 LARGEST INCREMENT OF DISP.         0.553       AT NODE     357082   DOF  2
 LARGEST CORRECTION TO DISP.        2.721E-03   AT NODE  100102206   DOF  2
          FORCE     EQUILIBRIUM NOT ACHIEVED WITHIN TOLERANCE.

 AVERAGE MOMENT                     0.468       TIME AVG. MOMENT      0.328    
 LARGEST RESIDUAL MOMENT            -175.       AT NODE        687   DOF  5
 LARGEST INCREMENT OF ROTATION     -2.199E-03   AT NODE     323779   DOF  6
 LARGEST CORRECTION TO ROTATION    -1.326E-05   AT NODE     368446   DOF  6
          MOMENT    EQUILIBRIUM NOT ACHIEVED WITHIN TOLERANCE.

  NUMBER OF EQUATIONS =   505425     NUMBER OF FLOATING PT. OPERATIONS =  1.58E+11

  USING THE DIRECT SOLVER WITH  10 PROCESSORS

     CHECK POINT   START OF SOLVER    

     CHECK POINT  END OF SOLVER       

       ELAPSED USER TIME (SEC)      =   17.520    
       ELAPSED SYSTEM TIME (SEC)    =  0.25000    
       ELAPSED TOTAL CPU TIME (SEC) =   17.770    
       ELAPSED WALLCLOCK TIME (SEC) =          2

               CONVERGENCE CHECKS FOR EQUILIBRIUM ITERATION     2


 AVERAGE FORCE                       1.09       TIME AVG. FORCE       0.817    
 LARGEST RESIDUAL FORCE            -9.987E-05   AT NODE     277602   DOF  3
 LARGEST INCREMENT OF DISP.         0.553       AT NODE     357082   DOF  2
 LARGEST CORRECTION TO DISP.        5.977E-05   AT NODE     303351   DOF  2
          THE FORCE     EQUILIBRIUM EQUATIONS HAVE CONVERGED

 AVERAGE MOMENT                     0.468       TIME AVG. MOMENT      0.328    
 LARGEST RESIDUAL MOMENT            1.585E-03   AT NODE        687   DOF  4
 LARGEST INCREMENT OF ROTATION     -2.199E-03   AT NODE     323779   DOF  6
 LARGEST CORRECTION TO ROTATION    -3.334E-06   AT NODE      18866   DOF  6
          THE MOMENT    EQUILIBRIUM EQUATIONS HAVE CONVERGED
          TIME INCREMENT MAY NOW INCREASE TO    7.500E-02

 ITERATION SUMMARY FOR THE INCREMENT:   2 TOTAL ITERATIONS, OF WHICH
   0 ARE SEVERE DISCONTINUITY ITERATIONS AND  2 ARE EQUILIBRIUM ITERATIONS.

 CURRENT VALUE OF MONITOR NODE        687 D.O.F.  3 IS  -0.415    

 TIME INCREMENT COMPLETED  5.000E-02,  FRACTION OF STEP COMPLETED  0.100    
 STEP TIME COMPLETED       0.100    ,  TOTAL TIME COMPLETED        0.100    
  
     ASYNCHRONOUS OUTPUT DATABASE FRAME FLUSH STARTED
  


  INCREMENT     3 STARTS. ATTEMPT NUMBER  1, TIME INCREMENT  7.500E-02

  NUMBER OF EQUATIONS =   505425     NUMBER OF FLOATING PT. OPERATIONS =  1.58E+11

  USING THE DIRECT SOLVER WITH  10 PROCESSORS

     CHECK POINT   START OF SOLVER    

     CHECK POINT  END OF SOLVER       

       ELAPSED USER TIME (SEC)      =   17.280    
       ELAPSED SYSTEM TIME (SEC)    =  0.23000    
       ELAPSED TOTAL CPU TIME (SEC) =   17.510    
       ELAPSED WALLCLOCK TIME (SEC) =          2

               CONVERGENCE CHECKS FOR EQUILIBRIUM ITERATION     1


 AVERAGE FORCE                       1.91       TIME AVG. FORCE        1.18    
 LARGEST RESIDUAL FORCE              21.1       AT NODE     277602   DOF  3
 LARGEST INCREMENT OF DISP.         0.834       AT NODE     357083   DOF  2
 LARGEST CORRECTION TO DISP.        4.966E-03   AT NODE  100102206   DOF  2
          FORCE     EQUILIBRIUM NOT ACHIEVED WITHIN TOLERANCE.

 AVERAGE MOMENT                     0.802       TIME AVG. MOMENT      0.486    
 LARGEST RESIDUAL MOMENT            -328.       AT NODE        687   DOF  5
 LARGEST INCREMENT OF ROTATION     -3.295E-03   AT NODE     323779   DOF  6
 LARGEST CORRECTION TO ROTATION     2.185E-05   AT NODE     409805   DOF  6
          MOMENT    EQUILIBRIUM NOT ACHIEVED WITHIN TOLERANCE.

  NUMBER OF EQUATIONS =   505425     NUMBER OF FLOATING PT. OPERATIONS =  1.58E+11

  USING THE DIRECT SOLVER WITH  10 PROCESSORS

     CHECK POINT   START OF SOLVER    

     CHECK POINT  END OF SOLVER       

       ELAPSED USER TIME (SEC)      =   17.150    
       ELAPSED SYSTEM TIME (SEC)    =  0.26000    
       ELAPSED TOTAL CPU TIME (SEC) =   17.410    
       ELAPSED WALLCLOCK TIME (SEC) =          1

               CONVERGENCE CHECKS FOR EQUILIBRIUM ITERATION     2


 AVERAGE FORCE                       1.91       TIME AVG. FORCE        1.18    
 LARGEST RESIDUAL FORCE            -3.549E-04   AT NODE     277602   DOF  3
 LARGEST INCREMENT OF DISP.         0.833       AT NODE     357083   DOF  2
 LARGEST CORRECTION TO DISP.        1.128E-04   AT NODE     303342   DOF  2
          THE FORCE     EQUILIBRIUM EQUATIONS HAVE CONVERGED

 AVERAGE MOMENT                     0.802       TIME AVG. MOMENT      0.486    
 LARGEST RESIDUAL MOMENT            5.640E-03   AT NODE        687   DOF  4
 LARGEST INCREMENT OF ROTATION     -3.295E-03   AT NODE     323779   DOF  6
 LARGEST CORRECTION TO ROTATION    -6.272E-06   AT NODE      18866   DOF  6
          MOMENT    EQUILIBRIUM NOT ACHIEVED WITHIN TOLERANCE.

  NUMBER OF EQUATIONS =   505425     NUMBER OF FLOATING PT. OPERATIONS =  1.58E+11

  USING THE DIRECT SOLVER WITH  10 PROCESSORS

     CHECK POINT   START OF SOLVER    

     CHECK POINT  END OF SOLVER       

       ELAPSED USER TIME (SEC)      =   17.160    
       ELAPSED SYSTEM TIME (SEC)    =  0.24000    
       ELAPSED TOTAL CPU TIME (SEC) =   17.400    
       ELAPSED WALLCLOCK TIME (SEC) =          2

               CONVERGENCE CHECKS FOR EQUILIBRIUM ITERATION     3


 AVERAGE FORCE                       1.91       TIME AVG. FORCE        1.18    
 LARGEST RESIDUAL FORCE             5.431E-07   AT NODE     191516   DOF  1
 LARGEST INCREMENT OF DISP.         0.833       AT NODE     357083   DOF  2
 LARGEST CORRECTION TO DISP.       -5.695E-08   AT NODE     278091   DOF  1
          THE FORCE     EQUILIBRIUM EQUATIONS HAVE CONVERGED

 AVERAGE MOMENT                     0.802       TIME AVG. MOMENT      0.486    
 LARGEST RESIDUAL MOMENT           -8.754E-06   AT NODE        687   DOF  4
 LARGEST INCREMENT OF ROTATION     -3.295E-03   AT NODE     323779   DOF  6
 LARGEST CORRECTION TO ROTATION     8.032E-09   AT NODE     278915   DOF  5
          THE MOMENT    EQUILIBRIUM EQUATIONS HAVE CONVERGED
          TIME INCREMENT MAY NOW INCREASE TO    0.113    

 ITERATION SUMMARY FOR THE INCREMENT:   3 TOTAL ITERATIONS, OF WHICH
   0 ARE SEVERE DISCONTINUITY ITERATIONS AND  3 ARE EQUILIBRIUM ITERATIONS.

 CURRENT VALUE OF MONITOR NODE        687 D.O.F.  3 IS  -0.727    

 TIME INCREMENT COMPLETED  7.500E-02,  FRACTION OF STEP COMPLETED  0.175    
 STEP TIME COMPLETED       0.175    ,  TOTAL TIME COMPLETED        0.175    
  
     ASYNCHRONOUS OUTPUT DATABASE FRAME FLUSH STARTED
  


  INCREMENT     4 STARTS. ATTEMPT NUMBER  1, TIME INCREMENT  0.113    

  NUMBER OF EQUATIONS =   505425     NUMBER OF FLOATING PT. OPERATIONS =  1.58E+11

  USING THE DIRECT SOLVER WITH  10 PROCESSORS

     CHECK POINT   START OF SOLVER    

     CHECK POINT  END OF SOLVER       

       ELAPSED USER TIME (SEC)      =   17.310    
       ELAPSED SYSTEM TIME (SEC)    =  0.25000    
       ELAPSED TOTAL CPU TIME (SEC) =   17.560    
       ELAPSED WALLCLOCK TIME (SEC) =          2

               CONVERGENCE CHECKS FOR EQUILIBRIUM ITERATION     1


 AVERAGE FORCE                       3.14       TIME AVG. FORCE        1.67    
 LARGEST RESIDUAL FORCE              47.8       AT NODE     277602   DOF  3
 LARGEST INCREMENT OF DISP.          1.26       AT NODE     357083   DOF  2
 LARGEST CORRECTION TO DISP.        1.114E-02   AT NODE  100102206   DOF  2
          FORCE     EQUILIBRIUM NOT ACHIEVED WITHIN TOLERANCE.

 AVERAGE MOMENT                      1.30       TIME AVG. MOMENT      0.689    
 LARGEST RESIDUAL MOMENT            -733.       AT NODE        687   DOF  5
 LARGEST INCREMENT OF ROTATION     -4.932E-03   AT NODE     323779   DOF  6
 LARGEST CORRECTION TO ROTATION     4.628E-05   AT NODE     409805   DOF  6
          MOMENT    EQUILIBRIUM NOT ACHIEVED WITHIN TOLERANCE.

  NUMBER OF EQUATIONS =   505425     NUMBER OF FLOATING PT. OPERATIONS =  1.58E+11

  USING THE DIRECT SOLVER WITH  10 PROCESSORS

     CHECK POINT   START OF SOLVER    

     CHECK POINT  END OF SOLVER       

       ELAPSED USER TIME (SEC)      =   17.310    
       ELAPSED SYSTEM TIME (SEC)    =  0.25000    
       ELAPSED TOTAL CPU TIME (SEC) =   17.560    
       ELAPSED WALLCLOCK TIME (SEC) =          2

               CONVERGENCE CHECKS FOR EQUILIBRIUM ITERATION     2


 AVERAGE FORCE                       3.14       TIME AVG. FORCE        1.67    
 LARGEST RESIDUAL FORCE            -1.819E-03   AT NODE     277602   DOF  3
 LARGEST INCREMENT OF DISP.          1.26       AT NODE     357083   DOF  2
 LARGEST CORRECTION TO DISP.        2.571E-04   AT NODE     303342   DOF  2
          THE FORCE     EQUILIBRIUM EQUATIONS HAVE CONVERGED

 AVERAGE MOMENT                      1.30       TIME AVG. MOMENT      0.689    
 LARGEST RESIDUAL MOMENT            2.947E-02   AT NODE        687   DOF  4
 LARGEST INCREMENT OF ROTATION     -4.931E-03   AT NODE     323779   DOF  6
 LARGEST CORRECTION TO ROTATION    -1.415E-05   AT NODE      18866   DOF  6
          MOMENT    EQUILIBRIUM NOT ACHIEVED WITHIN TOLERANCE.

  NUMBER OF EQUATIONS =   505425     NUMBER OF FLOATING PT. OPERATIONS =  1.58E+11

  USING THE DIRECT SOLVER WITH  10 PROCESSORS

     CHECK POINT   START OF SOLVER    

     CHECK POINT  END OF SOLVER       

       ELAPSED USER TIME (SEC)      =   16.670    
       ELAPSED SYSTEM TIME (SEC)    =  0.22000    
       ELAPSED TOTAL CPU TIME (SEC) =   16.890    
       ELAPSED WALLCLOCK TIME (SEC) =          2

               CONVERGENCE CHECKS FOR EQUILIBRIUM ITERATION     3


 AVERAGE FORCE                       3.14       TIME AVG. FORCE        1.67    
 LARGEST RESIDUAL FORCE             5.219E-07   AT NODE     347856   DOF  1
 LARGEST INCREMENT OF DISP.          1.26       AT NODE     357083   DOF  2
 LARGEST CORRECTION TO DISP.       -2.245E-07   AT NODE     278091   DOF  1
          THE FORCE     EQUILIBRIUM EQUATIONS HAVE CONVERGED

 AVERAGE MOMENT                      1.30       TIME AVG. MOMENT      0.689    
 LARGEST RESIDUAL MOMENT           -1.681E-05   AT NODE        687   DOF  4
 LARGEST INCREMENT OF ROTATION     -4.931E-03   AT NODE     323779   DOF  6
 LARGEST CORRECTION TO ROTATION     2.956E-08   AT NODE     278915   DOF  5
          THE MOMENT    EQUILIBRIUM EQUATIONS HAVE CONVERGED
          TIME INCREMENT MAY NOW INCREASE TO    0.169    

 ITERATION SUMMARY FOR THE INCREMENT:   3 TOTAL ITERATIONS, OF WHICH
   0 ARE SEVERE DISCONTINUITY ITERATIONS AND  3 ARE EQUILIBRIUM ITERATIONS.

 CURRENT VALUE OF MONITOR NODE        687 D.O.F.  3 IS   -1.20    

 TIME INCREMENT COMPLETED  0.113    ,  FRACTION OF STEP COMPLETED  0.288    
 STEP TIME COMPLETED       0.288    ,  TOTAL TIME COMPLETED        0.288    
  
     ASYNCHRONOUS OUTPUT DATABASE FRAME FLUSH STARTED
  


  INCREMENT     5 STARTS. ATTEMPT NUMBER  1, TIME INCREMENT  0.169    

  NUMBER OF EQUATIONS =   505425     NUMBER OF FLOATING PT. OPERATIONS =  1.58E+11

  USING THE DIRECT SOLVER WITH  10 PROCESSORS

     CHECK POINT   START OF SOLVER    

     CHECK POINT  END OF SOLVER       

       ELAPSED USER TIME (SEC)      =   16.750    
       ELAPSED SYSTEM TIME (SEC)    =  0.24000    
       ELAPSED TOTAL CPU TIME (SEC) =   16.990    
       ELAPSED WALLCLOCK TIME (SEC) =          2

               CONVERGENCE CHECKS FOR EQUILIBRIUM ITERATION     1


 AVERAGE FORCE                       4.99       TIME AVG. FORCE        2.34    
 LARGEST RESIDUAL FORCE              108.       AT NODE     277602   DOF  3
 LARGEST INCREMENT OF DISP.          1.90       AT NODE     357083   DOF  2
 LARGEST CORRECTION TO DISP.        2.477E-02   AT NODE  100102206   DOF  2
          FORCE     EQUILIBRIUM NOT ACHIEVED WITHIN TOLERANCE.

 AVERAGE MOMENT                      2.04       TIME AVG. MOMENT      0.960    
 LARGEST RESIDUAL MOMENT           -1.632E+03   AT NODE        687   DOF  5
 LARGEST INCREMENT OF ROTATION     -7.367E-03   AT NODE     323779   DOF  6
 LARGEST CORRECTION TO ROTATION     1.021E-04   AT NODE     409805   DOF  6
          MOMENT    EQUILIBRIUM NOT ACHIEVED WITHIN TOLERANCE.

  NUMBER OF EQUATIONS =   505425     NUMBER OF FLOATING PT. OPERATIONS =  1.58E+11

  USING THE DIRECT SOLVER WITH  10 PROCESSORS

     CHECK POINT   START OF SOLVER    

     CHECK POINT  END OF SOLVER       

       ELAPSED USER TIME (SEC)      =   16.610    
       ELAPSED SYSTEM TIME (SEC)    =  0.26000    
       ELAPSED TOTAL CPU TIME (SEC) =   16.870    
       ELAPSED WALLCLOCK TIME (SEC) =          2

               CONVERGENCE CHECKS FOR EQUILIBRIUM ITERATION     2


 AVERAGE FORCE                       4.99       TIME AVG. FORCE        2.34    
 LARGEST RESIDUAL FORCE            -9.385E-03   AT NODE     277602   DOF  3
 LARGEST INCREMENT OF DISP.          1.90       AT NODE     357083   DOF  2
 LARGEST CORRECTION TO DISP.        5.911E-04   AT NODE     303342   DOF  2
          THE FORCE     EQUILIBRIUM EQUATIONS HAVE CONVERGED

 AVERAGE MOMENT                      2.04       TIME AVG. MOMENT      0.960    
 LARGEST RESIDUAL MOMENT            0.153       AT NODE        687   DOF  4
 LARGEST INCREMENT OF ROTATION     -7.365E-03   AT NODE     323779   DOF  6
 LARGEST CORRECTION TO ROTATION    -3.196E-05   AT NODE      18866   DOF  6
          MOMENT    EQUILIBRIUM NOT ACHIEVED WITHIN TOLERANCE.

  NUMBER OF EQUATIONS =   505425     NUMBER OF FLOATING PT. OPERATIONS =  1.58E+11

  USING THE DIRECT SOLVER WITH  10 PROCESSORS

     CHECK POINT   START OF SOLVER    

     CHECK POINT  END OF SOLVER       

       ELAPSED USER TIME (SEC)      =   17.040    
       ELAPSED SYSTEM TIME (SEC)    =  0.26000    
       ELAPSED TOTAL CPU TIME (SEC) =   17.300    
       ELAPSED WALLCLOCK TIME (SEC) =          2

               CONVERGENCE CHECKS FOR EQUILIBRIUM ITERATION     3


 AVERAGE FORCE                       4.99       TIME AVG. FORCE        2.34    
 LARGEST RESIDUAL FORCE             2.649E-06   AT NODE        687   DOF  2
 LARGEST INCREMENT OF DISP.          1.90       AT NODE     357083   DOF  2
 LARGEST CORRECTION TO DISP.       -1.162E-06   AT NODE  100102945   DOF  2
          THE FORCE     EQUILIBRIUM EQUATIONS HAVE CONVERGED

 AVERAGE MOMENT                      2.04       TIME AVG. MOMENT      0.960    
 LARGEST RESIDUAL MOMENT           -8.084E-05   AT NODE        687   DOF  4
 LARGEST INCREMENT OF ROTATION     -7.365E-03   AT NODE     323779   DOF  6
 LARGEST CORRECTION TO ROTATION     1.074E-07   AT NODE     278915   DOF  5
          THE MOMENT    EQUILIBRIUM EQUATIONS HAVE CONVERGED
          TIME INCREMENT MAY NOW INCREASE TO    0.253    

 ITERATION SUMMARY FOR THE INCREMENT:   3 TOTAL ITERATIONS, OF WHICH
   0 ARE SEVERE DISCONTINUITY ITERATIONS AND  3 ARE EQUILIBRIUM ITERATIONS.

 CURRENT VALUE OF MONITOR NODE        687 D.O.F.  3 IS   -1.91    

 TIME INCREMENT COMPLETED  0.169    ,  FRACTION OF STEP COMPLETED  0.456    
 STEP TIME COMPLETED       0.456    ,  TOTAL TIME COMPLETED        0.456    
  
     ASYNCHRONOUS OUTPUT DATABASE FRAME FLUSH STARTED
  


  INCREMENT     6 STARTS. ATTEMPT NUMBER  1, TIME INCREMENT  0.253    

  NUMBER OF EQUATIONS =   505425     NUMBER OF FLOATING PT. OPERATIONS =  1.58E+11

  USING THE DIRECT SOLVER WITH  10 PROCESSORS

     CHECK POINT   START OF SOLVER    

     CHECK POINT  END OF SOLVER       

       ELAPSED USER TIME (SEC)      =   17.030    
       ELAPSED SYSTEM TIME (SEC)    =  0.22000    
       ELAPSED TOTAL CPU TIME (SEC) =   17.250    
       ELAPSED WALLCLOCK TIME (SEC) =          2

               CONVERGENCE CHECKS FOR EQUILIBRIUM ITERATION     1


 AVERAGE FORCE                       7.78       TIME AVG. FORCE        3.24    
 LARGEST RESIDUAL FORCE              247.       AT NODE     277602   DOF  3
 LARGEST INCREMENT OF DISP.          2.89       AT NODE     357084   DOF  2
 LARGEST CORRECTION TO DISP.        5.460E-02   AT NODE  100102206   DOF  2
          FORCE     EQUILIBRIUM NOT ACHIEVED WITHIN TOLERANCE.

 AVERAGE MOMENT                      3.15       TIME AVG. MOMENT       1.33    
 LARGEST RESIDUAL MOMENT           -3.586E+03   AT NODE        687   DOF  5
 LARGEST INCREMENT OF ROTATION     -1.096E-02   AT NODE     323779   DOF  6
 LARGEST CORRECTION TO ROTATION     2.235E-04   AT NODE     409805   DOF  6
          MOMENT    EQUILIBRIUM NOT ACHIEVED WITHIN TOLERANCE.

  NUMBER OF EQUATIONS =   505425     NUMBER OF FLOATING PT. OPERATIONS =  1.58E+11

  USING THE DIRECT SOLVER WITH  10 PROCESSORS

     CHECK POINT   START OF SOLVER    

     CHECK POINT  END OF SOLVER       

       ELAPSED USER TIME (SEC)      =   17.210    
       ELAPSED SYSTEM TIME (SEC)    =  0.25000    
       ELAPSED TOTAL CPU TIME (SEC) =   17.460    
       ELAPSED WALLCLOCK TIME (SEC) =          2

               CONVERGENCE CHECKS FOR EQUILIBRIUM ITERATION     2


 AVERAGE FORCE                       7.77       TIME AVG. FORCE        3.24    
 LARGEST RESIDUAL FORCE            -4.878E-02   AT NODE     277602   DOF  3
 LARGEST INCREMENT OF DISP.          2.89       AT NODE     357084   DOF  2
 LARGEST CORRECTION TO DISP.        1.380E-03   AT NODE     303356   DOF  2
          FORCE     EQUILIBRIUM NOT ACHIEVED WITHIN TOLERANCE.

 AVERAGE MOMENT                      3.15       TIME AVG. MOMENT       1.33    
 LARGEST RESIDUAL MOMENT            0.792       AT NODE        687   DOF  4
 LARGEST INCREMENT OF ROTATION     -1.095E-02   AT NODE     323779   DOF  6
 LARGEST CORRECTION TO ROTATION    -7.213E-05   AT NODE      18866   DOF  6
          MOMENT    EQUILIBRIUM NOT ACHIEVED WITHIN TOLERANCE.

  NUMBER OF EQUATIONS =   505425     NUMBER OF FLOATING PT. OPERATIONS =  1.58E+11

  USING THE DIRECT SOLVER WITH  10 PROCESSORS

     CHECK POINT   START OF SOLVER    

     CHECK POINT  END OF SOLVER       

       ELAPSED USER TIME (SEC)      =   16.810    
       ELAPSED SYSTEM TIME (SEC)    =  0.25000    
       ELAPSED TOTAL CPU TIME (SEC) =   17.060    
       ELAPSED WALLCLOCK TIME (SEC) =          2

               CONVERGENCE CHECKS FOR EQUILIBRIUM ITERATION     3


 AVERAGE FORCE                       7.77       TIME AVG. FORCE        3.24    
 LARGEST RESIDUAL FORCE             1.341E-05   AT NODE        687   DOF  2
 LARGEST INCREMENT OF DISP.          2.89       AT NODE     357084   DOF  2
 LARGEST CORRECTION TO DISP.       -6.455E-06   AT NODE  100101558   DOF  2
          THE FORCE     EQUILIBRIUM EQUATIONS HAVE CONVERGED

 AVERAGE MOMENT                      3.15       TIME AVG. MOMENT       1.33    
 LARGEST RESIDUAL MOMENT           -4.453E-04   AT NODE        687   DOF  4
 LARGEST INCREMENT OF ROTATION     -1.095E-02   AT NODE     323779   DOF  6
 LARGEST CORRECTION TO ROTATION     3.901E-07   AT NODE     278915   DOF  5
          THE MOMENT    EQUILIBRIUM EQUATIONS HAVE CONVERGED
          TIME INCREMENT MAY NOW INCREASE TO    0.380    

 ITERATION SUMMARY FOR THE INCREMENT:   3 TOTAL ITERATIONS, OF WHICH
   0 ARE SEVERE DISCONTINUITY ITERATIONS AND  3 ARE EQUILIBRIUM ITERATIONS.

 CURRENT VALUE OF MONITOR NODE        687 D.O.F.  3 IS   -2.98    

 TIME INCREMENT COMPLETED  0.253    ,  FRACTION OF STEP COMPLETED  0.709    
 STEP TIME COMPLETED       0.709    ,  TOTAL TIME COMPLETED        0.709    
  
     ASYNCHRONOUS OUTPUT DATABASE FRAME FLUSH STARTED
  


  INCREMENT     7 STARTS. ATTEMPT NUMBER  1, TIME INCREMENT  0.291    

  NUMBER OF EQUATIONS =   505425     NUMBER OF FLOATING PT. OPERATIONS =  1.58E+11

  USING THE DIRECT SOLVER WITH  10 PROCESSORS

     CHECK POINT   START OF SOLVER    

     CHECK POINT  END OF SOLVER       

       ELAPSED USER TIME (SEC)      =   17.330    
       ELAPSED SYSTEM TIME (SEC)    =  0.23000    
       ELAPSED TOTAL CPU TIME (SEC) =   17.560    
       ELAPSED WALLCLOCK TIME (SEC) =          2

               CONVERGENCE CHECKS FOR EQUILIBRIUM ITERATION     1


 AVERAGE FORCE                       11.0       TIME AVG. FORCE        4.35    
 LARGEST RESIDUAL FORCE              371.       AT NODE     277602   DOF  3
 LARGEST INCREMENT OF DISP.          3.37       AT NODE     357086   DOF  2
 LARGEST CORRECTION TO DISP.        7.851E-02   AT NODE  100102206   DOF  2
          FORCE     EQUILIBRIUM NOT ACHIEVED WITHIN TOLERANCE.

 AVERAGE MOMENT                      4.47       TIME AVG. MOMENT       1.77    
 LARGEST RESIDUAL MOMENT           -5.017E+03   AT NODE        687   DOF  5
 LARGEST INCREMENT OF ROTATION     -1.240E-02   AT NODE     368446   DOF  6
 LARGEST CORRECTION TO ROTATION     3.158E-04   AT NODE     409805   DOF  6
          MOMENT    EQUILIBRIUM NOT ACHIEVED WITHIN TOLERANCE.

  NUMBER OF EQUATIONS =   505425     NUMBER OF FLOATING PT. OPERATIONS =  1.58E+11

  USING THE DIRECT SOLVER WITH  10 PROCESSORS

     CHECK POINT   START OF SOLVER    

     CHECK POINT  END OF SOLVER       

       ELAPSED USER TIME (SEC)      =   16.900    
       ELAPSED SYSTEM TIME (SEC)    =  0.24000    
       ELAPSED TOTAL CPU TIME (SEC) =   17.140    
       ELAPSED WALLCLOCK TIME (SEC) =          1

               CONVERGENCE CHECKS FOR EQUILIBRIUM ITERATION     2


 AVERAGE FORCE                       11.0       TIME AVG. FORCE        4.35    
 LARGEST RESIDUAL FORCE            -0.111       AT NODE     277602   DOF  3
 LARGEST INCREMENT OF DISP.          3.37       AT NODE     357086   DOF  2
 LARGEST CORRECTION TO DISP.        2.101E-03   AT NODE     303346   DOF  2
          FORCE     EQUILIBRIUM NOT ACHIEVED WITHIN TOLERANCE.

 AVERAGE MOMENT                      4.47       TIME AVG. MOMENT       1.77    
 LARGEST RESIDUAL MOMENT             1.76       AT NODE        687   DOF  4
 LARGEST INCREMENT OF ROTATION     -1.239E-02   AT NODE     368446   DOF  6
 LARGEST CORRECTION TO ROTATION    -1.075E-04   AT NODE      18866   DOF  6
          MOMENT    EQUILIBRIUM NOT ACHIEVED WITHIN TOLERANCE.

  NUMBER OF EQUATIONS =   505425     NUMBER OF FLOATING PT. OPERATIONS =  1.58E+11

  USING THE DIRECT SOLVER WITH  10 PROCESSORS

     CHECK POINT   START OF SOLVER    

     CHECK POINT  END OF SOLVER       

       ELAPSED USER TIME (SEC)      =   16.560    
       ELAPSED SYSTEM TIME (SEC)    =  0.26000    
       ELAPSED TOTAL CPU TIME (SEC) =   16.820    
       ELAPSED WALLCLOCK TIME (SEC) =          2

               CONVERGENCE CHECKS FOR EQUILIBRIUM ITERATION     3


 AVERAGE FORCE                       11.0       TIME AVG. FORCE        4.35    
 LARGEST RESIDUAL FORCE             4.121E-05   AT NODE        687   DOF  2
 LARGEST INCREMENT OF DISP.          3.37       AT NODE     357086   DOF  2
 LARGEST CORRECTION TO DISP.       -1.727E-05   AT NODE  100102499   DOF  2
          THE FORCE     EQUILIBRIUM EQUATIONS HAVE CONVERGED

 AVERAGE MOMENT                      4.47       TIME AVG. MOMENT       1.77    
 LARGEST RESIDUAL MOMENT           -1.334E-03   AT NODE        687   DOF  4
 LARGEST INCREMENT OF ROTATION     -1.239E-02   AT NODE     368446   DOF  6
 LARGEST CORRECTION TO ROTATION     7.947E-07   AT NODE     278915   DOF  5
          THE MOMENT    EQUILIBRIUM EQUATIONS HAVE CONVERGED

 ITERATION SUMMARY FOR THE INCREMENT:   3 TOTAL ITERATIONS, OF WHICH
   0 ARE SEVERE DISCONTINUITY ITERATIONS AND  3 ARE EQUILIBRIUM ITERATIONS.

 CURRENT VALUE OF MONITOR NODE        687 D.O.F.  3 IS   -4.23    

 TIME INCREMENT COMPLETED  0.291    ,  FRACTION OF STEP COMPLETED   1.00    
 STEP TIME COMPLETED        1.00    ,  TOTAL TIME COMPLETED         1.00    
1

   Abaqus 6.14-4                                  Date 04-Nov-2016   Time 12:28:59
   For use by soco ENGINEERS AG under license from Dassault Systemes or its subsidiary.

 J29_BBG_TV: Status - BBG, P04DBO0_A-_01_A, Berechnungsstand 21.04.2016          
  LF_ENTLASTUNG                                                                  
 STEP    2     INCREMENT     1     STEP TIME    0.00    


                        S T E P       2     S T A T I C   A N A L Y S I S


           LF_ENTLASTUNG                                                                  

     AUTOMATIC TIME CONTROL WITH -
          A SUGGESTED INITIAL TIME INCREMENT OF                5.000E-02
          AND A TOTAL TIME PERIOD OF                            1.00    
          THE MINIMUM TIME INCREMENT ALLOWED IS                1.000E-07
          THE MAXIMUM TIME INCREMENT ALLOWED IS                 1.00    

     LINEAR EQUATION SOLVER TYPE         DIRECT SPARSE

 CONVERGENCE TOLERANCE PARAMETERS FOR FORCE    
     CRITERION FOR RESIDUAL FORCE     FOR A NONLINEAR PROBLEM          5.000E-03
     CRITERION FOR DISP.    CORRECTION IN A NONLINEAR PROBLEM          1.000E-02
     INIT. VALUE OF TIME AVG. FORCE     IS TIME AVG. FORCE     IN PREVIOUS STEP
     AVERAGE FORCE     IS TIME AVERAGE FORCE    
     ALTERNATE CRIT. FOR RESIDUAL FORCE     FOR A NONLINEAR PROBLEM    2.000E-02
     CRITERION FOR ZERO FORCE     RELATIVE TO TIME AVRG. FORCE         1.000E-05
     CRITERION FOR RESIDUAL FORCE     WHEN THERE IS ZERO FLUX          1.000E-05
     CRITERION FOR DISP.    CORRECTION WHEN THERE IS ZERO FLUX         1.000E-03
     CRITERION FOR RESIDUAL FORCE     FOR A LINEAR INCREMENT           1.000E-08
     FIELD CONVERSION RATIO                                             1.00    
     CRITERION FOR ZERO FORCE     REL. TO TIME AVRG. MAX. FORCE        1.000E-05
     CRITERION FOR ZERO DISP.    RELATIVE TO CHARACTERISTIC LENGTH     1.000E-08

 CONVERGENCE TOLERANCE PARAMETERS FOR MOMENT   
     CRITERION FOR RESIDUAL MOMENT    FOR A NONLINEAR PROBLEM          5.000E-03
     CRITERION FOR ROTATION CORRECTION IN A NONLINEAR PROBLEM          1.000E-02
     INIT. VALUE OF TIME AVG. MOMENT    IS TIME AVG. MOMENT    IN PREVIOUS STEP
     AVERAGE MOMENT    IS TIME AVERAGE MOMENT   
     ALTERNATE CRIT. FOR RESIDUAL MOMENT    FOR A NONLINEAR PROBLEM    2.000E-02
     CRITERION FOR ZERO MOMENT    RELATIVE TO TIME AVRG. MOMENT        1.000E-05
     CRITERION FOR RESIDUAL MOMENT    WHEN THERE IS ZERO FLUX          1.000E-05
     CRITERION FOR ROTATION CORRECTION WHEN THERE IS ZERO FLUX         1.000E-03
     CRITERION FOR RESIDUAL MOMENT    FOR A LINEAR INCREMENT           1.000E-08
     FIELD CONVERSION RATIO                                             1.00    
     CRITERION FOR ZERO MOMENT    REL. TO TIME AVRG. MAX. MOMENT       1.000E-05

     VOLUMETRIC STRAIN COMPATIBILITY TOLERANCE FOR HYBRID SOLIDS       1.000E-05
     AXIAL STRAIN COMPATIBILITY TOLERANCE FOR HYBRID BEAMS             1.000E-05
     TRANS. SHEAR STRAIN COMPATIBILITY TOLERANCE FOR HYBRID BEAMS      1.000E-05
     SOFT CONTACT CONSTRAINT COMPATIBILITY TOLERANCE FOR P>P0          5.000E-03
     SOFT CONTACT CONSTRAINT COMPATIBILITY TOLERANCE FOR P=0.0         0.100    
     CONTACT FORCE ERROR TOLERANCE FOR CONVERT SDI=YES                 1.00    
     DISPLACEMENT COMPATIBILITY TOLERANCE FOR DCOUP ELEMENTS           1.000E-05
     ROTATION COMPATIBILITY TOLERANCE FOR DCOUP ELEMENTS               1.000E-05

 EQUILIBRIUM WILL BE CHECKED FOR SEVERE DISCONTINUITY ITERATIONS

 TIME INCREMENTATION CONTROL PARAMETERS:
 *** FIRST EQUILIBRIUM ITERATION FOR CONSECUTIVE DIVERGENCE CHECK             20
 *** EQUILIBRIUM ITERATION AT WHICH LOG. CONVERGENCE RATE CHECK BEGINS        15
     EQUILIBRIUM ITERATION AFTER WHICH ALTERNATE RESIDUAL IS USED              9
     MAXIMUM EQUILIBRIUM ITERATIONS ALLOWED                                   16
     EQUILIBRIUM ITERATION COUNT FOR CUT-BACK IN NEXT INCREMENT               10
     MAXIMUM EQUILIB. ITERS IN TWO INCREMENTS FOR TIME INCREMENT INCREASE      4
     MAXIMUM ITERATIONS FOR SEVERE DISCONTINUITIES                            50
 *** MAXIMUM CUT-BACKS ALLOWED IN AN INCREMENT                                 9
     MAXIMUM DISCON. ITERS IN TWO INCREMENTS FOR TIME INCREMENT INCREASE      50
     MAXIMUM CONTACT AUGMENTATIONS FOR *SURFACE BEHAVIOR,AUGMENTED LAGRANGE   50
     CUT-BACK FACTOR AFTER DIVERGENCE                                 0.2500    
     CUT-BACK FACTOR FOR TOO SLOW CONVERGENCE                         0.5000    
     CUT-BACK FACTOR AFTER TOO MANY EQUILIBRIUM ITERATIONS            0.7500    
     CUT-BACK FACTOR AFTER TOO MANY SEVERE DISCONTINUITY ITERATIONS   0.2500    
     CUT-BACK FACTOR AFTER PROBLEMS IN ELEMENT ASSEMBLY               0.2500    
     INCREASE FACTOR AFTER TWO INCREMENTS THAT CONVERGE QUICKLY        1.500    
     MAX. TIME INCREMENT INCREASE FACTOR ALLOWED                       1.500    
     MAX. TIME INCREMENT INCREASE FACTOR ALLOWED (DYNAMICS)            1.250    
     MAX. TIME INCREMENT INCREASE FACTOR ALLOWED (DIFFUSION)           2.000    
     MINIMUM TIME INCREMENT RATIO FOR EXTRAPOLATION TO OCCUR          0.1000    
     MAX. RATIO OF TIME INCREMENT TO STABILITY LIMIT                   1.000    
     FRACTION OF STABILITY LIMIT FOR NEW TIME INCREMENT               0.9500    
     TIME INCREMENT INCREASE FACTOR BEFORE A TIME POINT                1.000    

 *** INDICATES USE OF NON-DEFAULT TIME INCREMENTATION CONTROL PARAMETER
     SELECTED WITH *CONTROLS
     GLOBAL STABILIZATION CONTROL IS NOT USED

          PRINT OF INCREMENT NUMBER, TIME, ETC., EVERY    1  INCREMENTS

     THE MAXIMUM NUMBER OF INCREMENTS IN THIS STEP IS                    1000

          LARGE DISPLACEMENT THEORY WILL BE USED

     LINEAR EXTRAPOLATION WILL BE USED

     CHARACTERISTIC ELEMENT LENGTH      5.04    

     DETAILED OUTPUT OF CONTACT CHANGES DURING ITERATION REQUESTED

     DETAILS REGARDING ACTUAL SOLUTION WAVEFRONT REQUESTED

     DETAILED OUTPUT OF DIAGNOSTICS TO DATABASE REQUESTED

     DETAILED OUTPUT OF PLASTICITY FAILURES DURING ITERATION REQUESTED

     DETAILED OUTPUT OF MODEL CHANGE REQUESTED

     PRINT OF INCREMENT NUMBER, TIME, ETC., TO THE MESSAGE FILE EVERY     1  INCREMENTS

     THE STATUS FILE WILL MONITOR NODE         687 DOF  3
     THE MESSAGE FILE WILL MONITOR NODE        687 DOF  3 EVERY     1 INCREMENTS

     ELEMENT OPERATIONS WILL BE CARRIED OUT IN PARALLEL USING  10 PROCESSORS

     COLLECTING STEP CONSTRAINT INFORMATION FOR OVERCONSTRAINT CHECKS
  
     ASYNCHRONOUS OUTPUT DATABASE FRAME FLUSH STARTED
  


  INCREMENT     1 STARTS. ATTEMPT NUMBER  1, TIME INCREMENT  5.000E-02
 
     INITIAL ELEMENT LOAD BALANCE
        COMPUTE NODE   1   PROCESS    NUMBER OF ELEMENTS
                              1            4352
                              2            8448
                              3            8602
                              4            8448
                              5            8448
                              6            8704
                              7            11520
                              8            8448
                              9            7680
                             10            10496

  NUMBER OF EQUATIONS =   505425     NUMBER OF FLOATING PT. OPERATIONS =  1.58E+11

  USING THE DIRECT SOLVER WITH  10 PROCESSORS

     CHECK POINT   START OF SOLVER    

     CHECK POINT  END OF SOLVER       

       ELAPSED USER TIME (SEC)      =   17.290    
       ELAPSED SYSTEM TIME (SEC)    =  0.89000    
       ELAPSED TOTAL CPU TIME (SEC) =   18.180    
       ELAPSED WALLCLOCK TIME (SEC) =          2

               CONVERGENCE CHECKS FOR EQUILIBRIUM ITERATION     1


 AVERAGE FORCE                       10.5       TIME AVG. FORCE        10.5    
 LARGEST RESIDUAL FORCE             -5.98       AT NODE     278916   DOF  3
 LARGEST INCREMENT OF DISP.        -0.584       AT NODE     357086   DOF  2
 LARGEST CORRECTION TO DISP.       -0.584       AT NODE     357086   DOF  2
          FORCE     EQUILIBRIUM NOT ACHIEVED WITHIN TOLERANCE.

 AVERAGE MOMENT                      4.52       TIME AVG. MOMENT       4.52    
 LARGEST RESIDUAL MOMENT            -69.8       AT NODE        687   DOF  4
 LARGEST INCREMENT OF ROTATION      2.135E-03   AT NODE     368446   DOF  6
 LARGEST CORRECTION TO ROTATION     2.135E-03   AT NODE     368446   DOF  6
          MOMENT    EQUILIBRIUM NOT ACHIEVED WITHIN TOLERANCE.

  NUMBER OF EQUATIONS =   505425     NUMBER OF FLOATING PT. OPERATIONS =  1.58E+11

  USING THE DIRECT SOLVER WITH  10 PROCESSORS

     CHECK POINT   START OF SOLVER    

     CHECK POINT  END OF SOLVER       

       ELAPSED USER TIME (SEC)      =   16.630    
       ELAPSED SYSTEM TIME (SEC)    =  0.25000    
       ELAPSED TOTAL CPU TIME (SEC) =   16.880    
       ELAPSED WALLCLOCK TIME (SEC) =          2

               CONVERGENCE CHECKS FOR EQUILIBRIUM ITERATION     2


 AVERAGE FORCE                       10.5       TIME AVG. FORCE        10.5    
 LARGEST RESIDUAL FORCE            -1.949E-04   AT NODE        683   DOF  1
 LARGEST INCREMENT OF DISP.        -0.583       AT NODE     357086   DOF  2
 LARGEST CORRECTION TO DISP.        1.165E-03   AT NODE  100102206   DOF  2
          THE FORCE     EQUILIBRIUM EQUATIONS HAVE CONVERGED

 AVERAGE MOMENT                      4.52       TIME AVG. MOMENT       4.52    
 LARGEST RESIDUAL MOMENT           -1.937E-03   AT NODE        683   DOF  6
 LARGEST INCREMENT OF ROTATION      2.131E-03   AT NODE     368446   DOF  6
 LARGEST CORRECTION TO ROTATION     4.840E-06   AT NODE     409805   DOF  6
          THE MOMENT    EQUILIBRIUM EQUATIONS HAVE CONVERGED

 ITERATION SUMMARY FOR THE INCREMENT:   2 TOTAL ITERATIONS, OF WHICH
   0 ARE SEVERE DISCONTINUITY ITERATIONS AND  2 ARE EQUILIBRIUM ITERATIONS.

 CURRENT VALUE OF MONITOR NODE        687 D.O.F.  3 IS   -4.01    

 TIME INCREMENT COMPLETED  5.000E-02,  FRACTION OF STEP COMPLETED  5.000E-02
 STEP TIME COMPLETED       5.000E-02,  TOTAL TIME COMPLETED         1.05    
  
     ASYNCHRONOUS OUTPUT DATABASE FRAME FLUSH STARTED
  


  INCREMENT     2 STARTS. ATTEMPT NUMBER  1, TIME INCREMENT  5.000E-02

  NUMBER OF EQUATIONS =   505425     NUMBER OF FLOATING PT. OPERATIONS =  1.58E+11

  USING THE DIRECT SOLVER WITH  10 PROCESSORS

     CHECK POINT   START OF SOLVER    

     CHECK POINT  END OF SOLVER       

       ELAPSED USER TIME (SEC)      =   16.610    
       ELAPSED SYSTEM TIME (SEC)    =  0.24000    
       ELAPSED TOTAL CPU TIME (SEC) =   16.850    
       ELAPSED WALLCLOCK TIME (SEC) =          2

               CONVERGENCE CHECKS FOR EQUILIBRIUM ITERATION     1


 AVERAGE FORCE                       10.0       TIME AVG. FORCE        10.2    
 LARGEST RESIDUAL FORCE              12.0       AT NODE     277602   DOF  3
 LARGEST INCREMENT OF DISP.        -0.582       AT NODE     357086   DOF  2
 LARGEST CORRECTION TO DISP.        2.017E-03   AT NODE  100102206   DOF  2
          FORCE     EQUILIBRIUM NOT ACHIEVED WITHIN TOLERANCE.

 AVERAGE MOMENT                      4.92       TIME AVG. MOMENT       4.72    
 LARGEST RESIDUAL MOMENT            -145.       AT NODE        687   DOF  4
 LARGEST INCREMENT OF ROTATION      2.140E-03   AT NODE     368446   DOF  6
 LARGEST CORRECTION TO ROTATION    -2.940E-05   AT NODE  100100465   DOF  4
          MOMENT    EQUILIBRIUM NOT ACHIEVED WITHIN TOLERANCE.

  NUMBER OF EQUATIONS =   505425     NUMBER OF FLOATING PT. OPERATIONS =  1.58E+11

  USING THE DIRECT SOLVER WITH  10 PROCESSORS

     CHECK POINT   START OF SOLVER    

     CHECK POINT  END OF SOLVER       

       ELAPSED USER TIME (SEC)      =   17.170    
       ELAPSED SYSTEM TIME (SEC)    =  0.25000    
       ELAPSED TOTAL CPU TIME (SEC) =   17.420    
       ELAPSED WALLCLOCK TIME (SEC) =          2

               CONVERGENCE CHECKS FOR EQUILIBRIUM ITERATION     2


 AVERAGE FORCE                       10.0       TIME AVG. FORCE        10.2    
 LARGEST RESIDUAL FORCE            -1.197E-04   AT NODE     277602   DOF  3
 LARGEST INCREMENT OF DISP.        -0.582       AT NODE     357086   DOF  2
 LARGEST CORRECTION TO DISP.       -7.230E-05   AT NODE     357040   DOF  2
          THE FORCE     EQUILIBRIUM EQUATIONS HAVE CONVERGED

 AVERAGE MOMENT                      4.92       TIME AVG. MOMENT       4.72    
 LARGEST RESIDUAL MOMENT            2.662E-03   AT NODE     278915   DOF  5
 LARGEST INCREMENT OF ROTATION      2.141E-03   AT NODE     368446   DOF  6
 LARGEST CORRECTION TO ROTATION    -3.540E-06   AT NODE      18866   DOF  6
          THE MOMENT    EQUILIBRIUM EQUATIONS HAVE CONVERGED
          TIME INCREMENT MAY NOW INCREASE TO    7.500E-02

 ITERATION SUMMARY FOR THE INCREMENT:   2 TOTAL ITERATIONS, OF WHICH
   0 ARE SEVERE DISCONTINUITY ITERATIONS AND  2 ARE EQUILIBRIUM ITERATIONS.

 CURRENT VALUE OF MONITOR NODE        687 D.O.F.  3 IS   -3.80    

 TIME INCREMENT COMPLETED  5.000E-02,  FRACTION OF STEP COMPLETED  0.100    
 STEP TIME COMPLETED       0.100    ,  TOTAL TIME COMPLETED         1.10    
  
     ASYNCHRONOUS OUTPUT DATABASE FRAME FLUSH STARTED
  


  INCREMENT     3 STARTS. ATTEMPT NUMBER  1, TIME INCREMENT  7.500E-02

  NUMBER OF EQUATIONS =   505425     NUMBER OF FLOATING PT. OPERATIONS =  1.58E+11

  USING THE DIRECT SOLVER WITH  10 PROCESSORS

     CHECK POINT   START OF SOLVER    

     CHECK POINT  END OF SOLVER       

       ELAPSED USER TIME (SEC)      =   17.580    
       ELAPSED SYSTEM TIME (SEC)    =  0.25000    
       ELAPSED TOTAL CPU TIME (SEC) =   17.830    
       ELAPSED WALLCLOCK TIME (SEC) =          1

               CONVERGENCE CHECKS FOR EQUILIBRIUM ITERATION     1


 AVERAGE FORCE                       9.19       TIME AVG. FORCE        9.89    
 LARGEST RESIDUAL FORCE              22.5       AT NODE     277602   DOF  3
 LARGEST INCREMENT OF DISP.        -0.870       AT NODE     357086   DOF  2
 LARGEST CORRECTION TO DISP.        4.556E-03   AT NODE  100102206   DOF  2
          FORCE     EQUILIBRIUM NOT ACHIEVED WITHIN TOLERANCE.

 AVERAGE MOMENT                      4.57       TIME AVG. MOMENT       4.67    
 LARGEST RESIDUAL MOMENT            -279.       AT NODE        687   DOF  4
 LARGEST INCREMENT OF ROTATION      3.198E-03   AT NODE     368446   DOF  6
 LARGEST CORRECTION TO ROTATION     1.802E-05   AT NODE     409805   DOF  6
          MOMENT    EQUILIBRIUM NOT ACHIEVED WITHIN TOLERANCE.

  NUMBER OF EQUATIONS =   505425     NUMBER OF FLOATING PT. OPERATIONS =  1.58E+11

  USING THE DIRECT SOLVER WITH  10 PROCESSORS

     CHECK POINT   START OF SOLVER    

     CHECK POINT  END OF SOLVER       

       ELAPSED USER TIME (SEC)      =   16.850    
       ELAPSED SYSTEM TIME (SEC)    =  0.24000    
       ELAPSED TOTAL CPU TIME (SEC) =   17.090    
       ELAPSED WALLCLOCK TIME (SEC) =          2

               CONVERGENCE CHECKS FOR EQUILIBRIUM ITERATION     2


 AVERAGE FORCE                       9.19       TIME AVG. FORCE        9.89    
 LARGEST RESIDUAL FORCE            -4.147E-04   AT NODE     277602   DOF  3
 LARGEST INCREMENT OF DISP.        -0.870       AT NODE     357086   DOF  2
 LARGEST CORRECTION TO DISP.       -1.346E-04   AT NODE     357040   DOF  2
          THE FORCE     EQUILIBRIUM EQUATIONS HAVE CONVERGED

 AVERAGE MOMENT                      4.57       TIME AVG. MOMENT       4.67    
 LARGEST RESIDUAL MOMENT           -5.834E-03   AT NODE        687   DOF  5
 LARGEST INCREMENT OF ROTATION      3.199E-03   AT NODE     368446   DOF  6
 LARGEST CORRECTION TO ROTATION    -6.653E-06   AT NODE      18866   DOF  6
          THE MOMENT    EQUILIBRIUM EQUATIONS HAVE CONVERGED
          TIME INCREMENT MAY NOW INCREASE TO    0.113    

 ITERATION SUMMARY FOR THE INCREMENT:   2 TOTAL ITERATIONS, OF WHICH
   0 ARE SEVERE DISCONTINUITY ITERATIONS AND  2 ARE EQUILIBRIUM ITERATIONS.

 CURRENT VALUE OF MONITOR NODE        687 D.O.F.  3 IS   -3.48    

 TIME INCREMENT COMPLETED  7.500E-02,  FRACTION OF STEP COMPLETED  0.175    
 STEP TIME COMPLETED       0.175    ,  TOTAL TIME COMPLETED         1.18    
  
     ASYNCHRONOUS OUTPUT DATABASE FRAME FLUSH STARTED
  


  INCREMENT     4 STARTS. ATTEMPT NUMBER  1, TIME INCREMENT  0.113    

  NUMBER OF EQUATIONS =   505425     NUMBER OF FLOATING PT. OPERATIONS =  1.58E+11

  USING THE DIRECT SOLVER WITH  10 PROCESSORS

     CHECK POINT   START OF SOLVER    

     CHECK POINT  END OF SOLVER       

       ELAPSED USER TIME (SEC)      =   17.240    
       ELAPSED SYSTEM TIME (SEC)    =  0.25000    
       ELAPSED TOTAL CPU TIME (SEC) =   17.490    
       ELAPSED WALLCLOCK TIME (SEC) =          2

               CONVERGENCE CHECKS FOR EQUILIBRIUM ITERATION     1


 AVERAGE FORCE                       7.95       TIME AVG. FORCE        9.41    
 LARGEST RESIDUAL FORCE              50.4       AT NODE     277602   DOF  3
 LARGEST INCREMENT OF DISP.         -1.30       AT NODE     357084   DOF  2
 LARGEST CORRECTION TO DISP.        1.038E-02   AT NODE  100102206   DOF  2
          FORCE     EQUILIBRIUM NOT ACHIEVED WITHIN TOLERANCE.

 AVERAGE MOMENT                      4.05       TIME AVG. MOMENT       4.51    
 LARGEST RESIDUAL MOMENT            -646.       AT NODE        687   DOF  4
 LARGEST INCREMENT OF ROTATION      4.821E-03   AT NODE     323779   DOF  6
 LARGEST CORRECTION TO ROTATION     4.142E-05   AT NODE     409805   DOF  6
          MOMENT    EQUILIBRIUM NOT ACHIEVED WITHIN TOLERANCE.

  NUMBER OF EQUATIONS =   505425     NUMBER OF FLOATING PT. OPERATIONS =  1.58E+11

  USING THE DIRECT SOLVER WITH  10 PROCESSORS

     CHECK POINT   START OF SOLVER    

     CHECK POINT  END OF SOLVER       

       ELAPSED USER TIME (SEC)      =   17.420    
       ELAPSED SYSTEM TIME (SEC)    =  0.26000    
       ELAPSED TOTAL CPU TIME (SEC) =   17.680    
       ELAPSED WALLCLOCK TIME (SEC) =          2

               CONVERGENCE CHECKS FOR EQUILIBRIUM ITERATION     2


 AVERAGE FORCE                       7.95       TIME AVG. FORCE        9.41    
 LARGEST RESIDUAL FORCE            -2.066E-03   AT NODE     277602   DOF  3
 LARGEST INCREMENT OF DISP.         -1.30       AT NODE     357084   DOF  2
 LARGEST CORRECTION TO DISP.       -2.947E-04   AT NODE     357039   DOF  2
          THE FORCE     EQUILIBRIUM EQUATIONS HAVE CONVERGED

 AVERAGE MOMENT                      4.05       TIME AVG. MOMENT       4.51    
 LARGEST RESIDUAL MOMENT            2.899E-02   AT NODE        687   DOF  4
 LARGEST INCREMENT OF ROTATION      4.822E-03   AT NODE     323779   DOF  6
 LARGEST CORRECTION TO ROTATION    -1.498E-05   AT NODE      18866   DOF  6
          MOMENT    EQUILIBRIUM NOT ACHIEVED WITHIN TOLERANCE.

  NUMBER OF EQUATIONS =   505425     NUMBER OF FLOATING PT. OPERATIONS =  1.58E+11

  USING THE DIRECT SOLVER WITH  10 PROCESSORS

     CHECK POINT   START OF SOLVER    

     CHECK POINT  END OF SOLVER       

       ELAPSED USER TIME (SEC)      =   16.890    
       ELAPSED SYSTEM TIME (SEC)    =  0.28000    
       ELAPSED TOTAL CPU TIME (SEC) =   17.170    
       ELAPSED WALLCLOCK TIME (SEC) =          2

               CONVERGENCE CHECKS FOR EQUILIBRIUM ITERATION     3


 AVERAGE FORCE                       7.95       TIME AVG. FORCE        9.41    
 LARGEST RESIDUAL FORCE            -1.186E-06   AT NODE        687   DOF  1
 LARGEST INCREMENT OF DISP.         -1.30       AT NODE     357084   DOF  2
 LARGEST CORRECTION TO DISP.       -3.764E-07   AT NODE  100102520   DOF  2
          THE FORCE     EQUILIBRIUM EQUATIONS HAVE CONVERGED

 AVERAGE MOMENT                      4.05       TIME AVG. MOMENT       4.51    
 LARGEST RESIDUAL MOMENT           -4.748E-05   AT NODE        687   DOF  4
 LARGEST INCREMENT OF ROTATION      4.822E-03   AT NODE     323779   DOF  6
 LARGEST CORRECTION TO ROTATION     4.480E-08   AT NODE     278915   DOF  5
          THE MOMENT    EQUILIBRIUM EQUATIONS HAVE CONVERGED
          TIME INCREMENT MAY NOW INCREASE TO    0.169    

 ITERATION SUMMARY FOR THE INCREMENT:   3 TOTAL ITERATIONS, OF WHICH
   0 ARE SEVERE DISCONTINUITY ITERATIONS AND  3 ARE EQUILIBRIUM ITERATIONS.

 CURRENT VALUE OF MONITOR NODE        687 D.O.F.  3 IS   -3.00    

 TIME INCREMENT COMPLETED  0.113    ,  FRACTION OF STEP COMPLETED  0.288    
 STEP TIME COMPLETED       0.288    ,  TOTAL TIME COMPLETED         1.29    
  
     ASYNCHRONOUS OUTPUT DATABASE FRAME FLUSH STARTED
  


  INCREMENT     5 STARTS. ATTEMPT NUMBER  1, TIME INCREMENT  0.169    

  NUMBER OF EQUATIONS =   505425     NUMBER OF FLOATING PT. OPERATIONS =  1.58E+11

  USING THE DIRECT SOLVER WITH  10 PROCESSORS

     CHECK POINT   START OF SOLVER    

     CHECK POINT  END OF SOLVER       

       ELAPSED USER TIME (SEC)      =   16.530    
       ELAPSED SYSTEM TIME (SEC)    =  0.24000    
       ELAPSED TOTAL CPU TIME (SEC) =   16.770    
       ELAPSED WALLCLOCK TIME (SEC) =          2

               CONVERGENCE CHECKS FOR EQUILIBRIUM ITERATION     1


 AVERAGE FORCE                       6.10       TIME AVG. FORCE        8.75    
 LARGEST RESIDUAL FORCE              113.       AT NODE     277602   DOF  3
 LARGEST INCREMENT OF DISP.         -1.93       AT NODE     357084   DOF  2
 LARGEST CORRECTION TO DISP.        2.372E-02   AT NODE  100102206   DOF  2
          FORCE     EQUILIBRIUM NOT ACHIEVED WITHIN TOLERANCE.

 AVERAGE MOMENT                      3.28       TIME AVG. MOMENT       4.27    
 LARGEST RESIDUAL MOMENT           -1.517E+03   AT NODE        687   DOF  4
 LARGEST INCREMENT OF ROTATION      7.285E-03   AT NODE     323779   DOF  6
 LARGEST CORRECTION TO ROTATION     9.472E-05   AT NODE     409805   DOF  6
          MOMENT    EQUILIBRIUM NOT ACHIEVED WITHIN TOLERANCE.

  NUMBER OF EQUATIONS =   505425     NUMBER OF FLOATING PT. OPERATIONS =  1.58E+11

  USING THE DIRECT SOLVER WITH  10 PROCESSORS

     CHECK POINT   START OF SOLVER    

     CHECK POINT  END OF SOLVER       

       ELAPSED USER TIME (SEC)      =   17.240    
       ELAPSED SYSTEM TIME (SEC)    =  0.24000    
       ELAPSED TOTAL CPU TIME (SEC) =   17.480    
       ELAPSED WALLCLOCK TIME (SEC) =          2

               CONVERGENCE CHECKS FOR EQUILIBRIUM ITERATION     2


 AVERAGE FORCE                       6.10       TIME AVG. FORCE        8.75    
 LARGEST RESIDUAL FORCE            -1.030E-02   AT NODE     277602   DOF  3
 LARGEST INCREMENT OF DISP.         -1.93       AT NODE     357084   DOF  2
 LARGEST CORRECTION TO DISP.        6.570E-04   AT NODE     303365   DOF  2
          THE FORCE     EQUILIBRIUM EQUATIONS HAVE CONVERGED

 AVERAGE MOMENT                      3.28       TIME AVG. MOMENT       4.27    
 LARGEST RESIDUAL MOMENT            0.162       AT NODE        687   DOF  4
 LARGEST INCREMENT OF ROTATION      7.287E-03   AT NODE     323779   DOF  6
 LARGEST CORRECTION TO ROTATION    -3.369E-05   AT NODE      18866   DOF  6
          MOMENT    EQUILIBRIUM NOT ACHIEVED WITHIN TOLERANCE.

  NUMBER OF EQUATIONS =   505425     NUMBER OF FLOATING PT. OPERATIONS =  1.58E+11

  USING THE DIRECT SOLVER WITH  10 PROCESSORS

     CHECK POINT   START OF SOLVER    

     CHECK POINT  END OF SOLVER       

       ELAPSED USER TIME (SEC)      =   17.000    
       ELAPSED SYSTEM TIME (SEC)    =  0.25000    
       ELAPSED TOTAL CPU TIME (SEC) =   17.250    
       ELAPSED WALLCLOCK TIME (SEC) =          2

               CONVERGENCE CHECKS FOR EQUILIBRIUM ITERATION     3


 AVERAGE FORCE                       6.10       TIME AVG. FORCE        8.75    
 LARGEST RESIDUAL FORCE             1.979E-06   AT NODE        687   DOF  2
 LARGEST INCREMENT OF DISP.         -1.93       AT NODE     357084   DOF  2
 LARGEST CORRECTION TO DISP.       -1.644E-06   AT NODE  100102502   DOF  2
          THE FORCE     EQUILIBRIUM EQUATIONS HAVE CONVERGED

 AVERAGE MOMENT                      3.28       TIME AVG. MOMENT       4.27    
 LARGEST RESIDUAL MOMENT           -7.272E-05   AT NODE        687   DOF  4
 LARGEST INCREMENT OF ROTATION      7.287E-03   AT NODE     323779   DOF  6
 LARGEST CORRECTION TO ROTATION     6.627E-08   AT NODE     278915   DOF  5
          THE MOMENT    EQUILIBRIUM EQUATIONS HAVE CONVERGED
          TIME INCREMENT MAY NOW INCREASE TO    0.253    

 ITERATION SUMMARY FOR THE INCREMENT:   3 TOTAL ITERATIONS, OF WHICH
   0 ARE SEVERE DISCONTINUITY ITERATIONS AND  3 ARE EQUILIBRIUM ITERATIONS.

 CURRENT VALUE OF MONITOR NODE        687 D.O.F.  3 IS   -2.28    

 TIME INCREMENT COMPLETED  0.169    ,  FRACTION OF STEP COMPLETED  0.456    
 STEP TIME COMPLETED       0.456    ,  TOTAL TIME COMPLETED         1.46    
  
     ASYNCHRONOUS OUTPUT DATABASE FRAME FLUSH STARTED
  


  INCREMENT     6 STARTS. ATTEMPT NUMBER  1, TIME INCREMENT  0.253    

  NUMBER OF EQUATIONS =   505425     NUMBER OF FLOATING PT. OPERATIONS =  1.58E+11

  USING THE DIRECT SOLVER WITH  10 PROCESSORS

     CHECK POINT   START OF SOLVER    

     CHECK POINT  END OF SOLVER       

       ELAPSED USER TIME (SEC)      =   17.420    
       ELAPSED SYSTEM TIME (SEC)    =  0.22000    
       ELAPSED TOTAL CPU TIME (SEC) =   17.640    
       ELAPSED WALLCLOCK TIME (SEC) =          1

               CONVERGENCE CHECKS FOR EQUILIBRIUM ITERATION     1


 AVERAGE FORCE                       3.33       TIME AVG. FORCE        7.84    
 LARGEST RESIDUAL FORCE              252.       AT NODE     277602   DOF  3
 LARGEST INCREMENT OF DISP.         -2.86       AT NODE     357083   DOF  2
 LARGEST CORRECTION TO DISP.        5.446E-02   AT NODE  100102206   DOF  2
          FORCE     EQUILIBRIUM NOT ACHIEVED WITHIN TOLERANCE.

 AVERAGE MOMENT                      2.15       TIME AVG. MOMENT       3.91    
 LARGEST RESIDUAL MOMENT           -3.607E+03   AT NODE        687   DOF  4
 LARGEST INCREMENT OF ROTATION      1.103E-02   AT NODE     323779   DOF  6
 LARGEST CORRECTION TO ROTATION     2.188E-04   AT NODE     409805   DOF  6
          MOMENT    EQUILIBRIUM NOT ACHIEVED WITHIN TOLERANCE.

  NUMBER OF EQUATIONS =   505425     NUMBER OF FLOATING PT. OPERATIONS =  1.58E+11

  USING THE DIRECT SOLVER WITH  10 PROCESSORS

     CHECK POINT   START OF SOLVER    

     CHECK POINT  END OF SOLVER       

       ELAPSED USER TIME (SEC)      =   16.710    
       ELAPSED SYSTEM TIME (SEC)    =  0.24000    
       ELAPSED TOTAL CPU TIME (SEC) =   16.950    
       ELAPSED WALLCLOCK TIME (SEC) =          2

               CONVERGENCE CHECKS FOR EQUILIBRIUM ITERATION     2


 AVERAGE FORCE                       3.32       TIME AVG. FORCE        7.84    
 LARGEST RESIDUAL FORCE            -5.104E-02   AT NODE     277602   DOF  3
 LARGEST INCREMENT OF DISP.         -2.86       AT NODE     357083   DOF  2
 LARGEST CORRECTION TO DISP.        1.555E-03   AT NODE     303365   DOF  2
          FORCE     EQUILIBRIUM NOT ACHIEVED WITHIN TOLERANCE.

 AVERAGE MOMENT                      2.15       TIME AVG. MOMENT       3.91    
 LARGEST RESIDUAL MOMENT            0.847       AT NODE        687   DOF  4
 LARGEST INCREMENT OF ROTATION      1.103E-02   AT NODE     323779   DOF  6
 LARGEST CORRECTION TO ROTATION    -7.564E-05   AT NODE      18866   DOF  6
          MOMENT    EQUILIBRIUM NOT ACHIEVED WITHIN TOLERANCE.

  NUMBER OF EQUATIONS =   505425     NUMBER OF FLOATING PT. OPERATIONS =  1.58E+11

  USING THE DIRECT SOLVER WITH  10 PROCESSORS

     CHECK POINT   START OF SOLVER    

     CHECK POINT  END OF SOLVER       

       ELAPSED USER TIME (SEC)      =   16.760    
       ELAPSED SYSTEM TIME (SEC)    =  0.24000    
       ELAPSED TOTAL CPU TIME (SEC) =   17.000    
       ELAPSED WALLCLOCK TIME (SEC) =          1

               CONVERGENCE CHECKS FOR EQUILIBRIUM ITERATION     3


 AVERAGE FORCE                       3.32       TIME AVG. FORCE        7.84    
 LARGEST RESIDUAL FORCE             2.017E-06   AT NODE        687   DOF  2
 LARGEST INCREMENT OF DISP.         -2.86       AT NODE     357083   DOF  2
 LARGEST CORRECTION TO DISP.       -6.819E-06   AT NODE  100102523   DOF  2
          THE FORCE     EQUILIBRIUM EQUATIONS HAVE CONVERGED

 AVERAGE MOMENT                      2.15       TIME AVG. MOMENT       3.91    
 LARGEST RESIDUAL MOMENT           -2.782E-05   AT NODE        687   DOF  4
 LARGEST INCREMENT OF ROTATION      1.103E-02   AT NODE     323779   DOF  6
 LARGEST CORRECTION TO ROTATION    -1.225E-07   AT NODE     184576   DOF  6
          THE MOMENT    EQUILIBRIUM EQUATIONS HAVE CONVERGED
          TIME INCREMENT MAY NOW INCREASE TO    0.380    

 ITERATION SUMMARY FOR THE INCREMENT:   3 TOTAL ITERATIONS, OF WHICH
   0 ARE SEVERE DISCONTINUITY ITERATIONS AND  3 ARE EQUILIBRIUM ITERATIONS.

 CURRENT VALUE OF MONITOR NODE        687 D.O.F.  3 IS   -1.21    

 TIME INCREMENT COMPLETED  0.253    ,  FRACTION OF STEP COMPLETED  0.709    
 STEP TIME COMPLETED       0.709    ,  TOTAL TIME COMPLETED         1.71    
  
     ASYNCHRONOUS OUTPUT DATABASE FRAME FLUSH STARTED
  


  INCREMENT     7 STARTS. ATTEMPT NUMBER  1, TIME INCREMENT  0.291    

  NUMBER OF EQUATIONS =   505425     NUMBER OF FLOATING PT. OPERATIONS =  1.58E+11

  USING THE DIRECT SOLVER WITH  10 PROCESSORS

     CHECK POINT   START OF SOLVER    

     CHECK POINT  END OF SOLVER       

       ELAPSED USER TIME (SEC)      =   16.790    
       ELAPSED SYSTEM TIME (SEC)    =  0.24000    
       ELAPSED TOTAL CPU TIME (SEC) =   17.030    
       ELAPSED WALLCLOCK TIME (SEC) =          1

               CONVERGENCE CHECKS FOR EQUILIBRIUM ITERATION     1


 AVERAGE FORCE                      3.082E-02   TIME AVG. FORCE        6.73    
 LARGEST RESIDUAL FORCE              367.       AT NODE     277602   DOF  3
 LARGEST INCREMENT OF DISP.         -3.23       AT NODE     357083   DOF  2
 LARGEST CORRECTION TO DISP.        8.248E-02   AT NODE  100102206   DOF  2
          FORCE     EQUILIBRIUM NOT ACHIEVED WITHIN TOLERANCE.

 AVERAGE MOMENT                     7.398E-03   TIME AVG. MOMENT       3.35    
 LARGEST RESIDUAL MOMENT           -5.613E+03   AT NODE        687   DOF  4
 LARGEST INCREMENT OF ROTATION      1.276E-02   AT NODE     323779   DOF  6
 LARGEST CORRECTION TO ROTATION     3.392E-04   AT NODE     409805   DOF  6
          MOMENT    EQUILIBRIUM NOT ACHIEVED WITHIN TOLERANCE.

  NUMBER OF EQUATIONS =   505425     NUMBER OF FLOATING PT. OPERATIONS =  1.58E+11

  USING THE DIRECT SOLVER WITH  10 PROCESSORS

     CHECK POINT   START OF SOLVER    

     CHECK POINT  END OF SOLVER       

       ELAPSED USER TIME (SEC)      =   16.810    
       ELAPSED SYSTEM TIME (SEC)    =  0.25000    
       ELAPSED TOTAL CPU TIME (SEC) =   17.060    
       ELAPSED WALLCLOCK TIME (SEC) =          2

               CONVERGENCE CHECKS FOR EQUILIBRIUM ITERATION     2


 AVERAGE FORCE                      2.393E-03   TIME AVG. FORCE        6.72    
 LARGEST RESIDUAL FORCE            -0.108       AT NODE     277602   DOF  3
 LARGEST INCREMENT OF DISP.         -3.23       AT NODE     357083   DOF  2
 LARGEST CORRECTION TO DISP.        2.342E-03   AT NODE     303375   DOF  2
          FORCE     EQUILIBRIUM NOT ACHIEVED WITHIN TOLERANCE.

 AVERAGE MOMENT                     3.527E-03   TIME AVG. MOMENT       3.35    
 LARGEST RESIDUAL MOMENT             1.85       AT NODE        687   DOF  4
 LARGEST INCREMENT OF ROTATION      1.276E-02   AT NODE     323779   DOF  6
 LARGEST CORRECTION TO ROTATION    -1.107E-04   AT NODE      18866   DOF  6
          MOMENT    EQUILIBRIUM NOT ACHIEVED WITHIN TOLERANCE.

  NUMBER OF EQUATIONS =   505425     NUMBER OF FLOATING PT. OPERATIONS =  1.58E+11

  USING THE DIRECT SOLVER WITH  10 PROCESSORS

     CHECK POINT   START OF SOLVER    

     CHECK POINT  END OF SOLVER       

       ELAPSED USER TIME (SEC)      =   16.760    
       ELAPSED SYSTEM TIME (SEC)    =  0.24000    
       ELAPSED TOTAL CPU TIME (SEC) =   17.000    
       ELAPSED WALLCLOCK TIME (SEC) =          1

               CONVERGENCE CHECKS FOR EQUILIBRIUM ITERATION     3


 AVERAGE FORCE                      2.392E-03   TIME AVG. FORCE        6.72    
 LARGEST RESIDUAL FORCE             3.309E-06   AT NODE        685   DOF  3
 LARGEST INCREMENT OF DISP.         -3.23       AT NODE     357083   DOF  2
 LARGEST CORRECTION TO DISP.       -1.195E-05   AT NODE  100102934   DOF  2
          THE FORCE     EQUILIBRIUM EQUATIONS HAVE CONVERGED

 AVERAGE MOMENT                     3.527E-03   TIME AVG. MOMENT       3.35    
 LARGEST RESIDUAL MOMENT           -4.031E-05   AT NODE        687   DOF  4
 LARGEST INCREMENT OF ROTATION      1.276E-02   AT NODE     323779   DOF  6
 LARGEST CORRECTION TO ROTATION    -2.388E-07   AT NODE     278915   DOF  6
          THE MOMENT    EQUILIBRIUM EQUATIONS HAVE CONVERGED

 ITERATION SUMMARY FOR THE INCREMENT:   3 TOTAL ITERATIONS, OF WHICH
   0 ARE SEVERE DISCONTINUITY ITERATIONS AND  3 ARE EQUILIBRIUM ITERATIONS.

 CURRENT VALUE OF MONITOR NODE        687 D.O.F.  3 IS  -1.365E-04

 TIME INCREMENT COMPLETED  0.291    ,  FRACTION OF STEP COMPLETED   1.00    
 STEP TIME COMPLETED        1.00    ,  TOTAL TIME COMPLETED         2.00    


          THE ANALYSIS HAS BEEN COMPLETED



     ANALYSIS SUMMARY:
     TOTAL OF         14  INCREMENTS
                       0  CUTBACKS IN AUTOMATIC INCREMENTATION
                      38  ITERATIONS INCLUDING CONTACT ITERATIONS IF PRESENT
                      38  PASSES THROUGH THE EQUATION SOLVER OF WHICH 
                      38  INVOLVE MATRIX DECOMPOSITION, INCLUDING
                       0  DECOMPOSITION(S) OF THE MASS MATRIX
                       1  REORDERING OF EQUATIONS TO MINIMIZE WAVEFRONT
                       0  ADDITIONAL RESIDUAL EVALUATIONS FOR LINE SEARCHES
                       0  ADDITIONAL OPERATOR EVALUATIONS FOR LINE SEARCHES
                      74  WARNING MESSAGES DURING USER INPUT PROCESSING
                       0  WARNING MESSAGES DURING ANALYSIS
                       0  ANALYSIS WARNINGS ARE NUMERICAL PROBLEM MESSAGES
                       0  ANALYSIS WARNINGS ARE NEGATIVE EIGENVALUE MESSAGES
                       0  ERROR MESSAGES



     JOB TIME SUMMARY
       USER TIME (SEC)      =   1085.0    
       SYSTEM TIME (SEC)    =   84.090    
       TOTAL CPU TIME (SEC) =   1169.1    
       WALLCLOCK TIME (SEC) =        169
